
  EPA STORM WATER MANAGEMENT MODEL - VERSION 5.1 (Build 5.3.0.dev0)
  --------------------------------------------------------------

  WARNING 04: minimum elevation drop used for Conduit Link_01776
  WARNING 04: minimum elevation drop used for Conduit Link_01779
  WARNING 04: minimum elevation drop used for Conduit Link_07234
  WARNING 02: maximum depth increased for Node Node_06087
  
  *********************************************************
  NOTE: The summary statistics displayed in this report are
  based on results found at every computational time step,  
  not just on results from each reporting time step.
  *********************************************************
  
  ****************
  Analysis Options
  ****************
  Flow Units ............... CMS
  Process Models:
    Rainfall/Runoff ........ YES
    RDII ................... NO
    Snowmelt ............... NO
    Groundwater ............ NO
    Flow Routing ........... YES
    Ponding Allowed ........ YES
    Water Quality .......... YES
  Infiltration Method ...... HORTON
  Flow Routing Method ...... DYNWAVE
  Surcharge Method ......... EXTRAN
  Starting Date ............ 01/01/2011 00:00:00
  Ending Date .............. 01/03/2011 00:00:00
  Antecedent Dry Days ...... 0.0
  Report Time Step ......... 00:15:00
  Wet Time Step ............ 00:05:00
  Dry Time Step ............ 01:00:00
  Routing Time Step ........ 60.00 sec
  Variable Time Step ....... YES
  Maximum Trials ........... 8
  Number of Threads ........ 4
  Head Tolerance ........... 0.001500 m
  
  
  **************************        Volume         Depth
  Runoff Quantity Continuity     hectare-m            mm
  **************************     ---------       -------
  Total Precipitation ......         7.035         4.200
  Evaporation Loss .........         0.000         0.000
  Infiltration Loss ........         5.276         3.150
  Surface Runoff ...........         1.743         1.040
  Final Storage ............         0.016         0.010
  Continuity Error (%) .....        -0.002
  
  
  **************************           COD
  Runoff Quality Continuity             kg
  **************************    ----------
  Initial Buildup ..........         0.000
  Surface Buildup ..........         0.000
  Wet Deposition ...........     18502.158
  Sweeping Removal .........         0.000
  Infiltration Loss ........     13876.619
  BMP Removal ..............         0.000
  Surface Runoff ...........      4583.174
  Remaining Buildup ........        42.807
  Continuity Error (%) .....        -0.002
  
  
  **************************        Volume        Volume
  Flow Routing Continuity        hectare-m      10^6 ltr
  **************************     ---------     ---------
  Dry Weather Inflow .......         2.831        28.306
  Wet Weather Inflow .......         1.743        17.427
  Groundwater Inflow .......         0.000         0.000
  RDII Inflow ..............         0.000         0.000
  External Inflow ..........         0.000         0.000
  External Outflow .........         4.298        42.983
  Flooding Loss ............         0.942         9.419
  Evaporation Loss .........         0.000         0.000
  Exfiltration Loss ........         0.000         0.000
  Initial Stored Volume ....         0.047         0.470
  Final Stored Volume ......         0.321         3.212
  Continuity Error (%) .....       -20.368
  
  
  **************************           COD
  Quality Routing Continuity            kg
  **************************    ----------
  Dry Weather Inflow .......     15653.291
  Wet Weather Inflow .......      4487.826
  Groundwater Inflow .......         0.000
  RDII Inflow ..............         0.000
  External Inflow ..........         0.000
  External Outflow .........     15229.249
  Flooding Loss ............      2647.409
  Exfiltration Loss ........         0.000
  Mass Reacted .............         0.000
  Initial Stored Mass ......       259.951
  Final Stored Mass ........      1188.857
  Continuity Error (%) .....         6.546
  
  
  *************************
  Highest Continuity Errors
  *************************
  Node Node_07272 (-61.11%)
  Node Node_04713 (-60.25%)
  Node Node_04715 (-38.19%)
  Node Node_04456 (-20.49%)
  Node Node_04714 (-14.33%)
  
  
  ***************************
  Time-Step Critical Elements
  ***************************
  Link Link_01778 (57.53%)
  Link Link_01292 (22.23%)
  Link Link_02129 (7.08%)
  Link Link_06039 (3.88%)
  Link Link_02077 (2.21%)
  
  
  ********************************
  Highest Flow Instability Indexes
  ********************************
  Link Link_01336 (50)
  Link Link_01582 (47)
  Link Link_01323 (46)
  Link Link_01335 (46)
  Link Link_01325 (45)
  
  
  *************************
  Routing Time Step Summary
  *************************
  Minimum Time Step           :     5.00 sec
  Average Time Step           :     5.00 sec
  Maximum Time Step           :     5.00 sec
  Percent in Steady State     :     0.00
  Average Iterations per Step :     5.85
  Percent Not Converging      :    54.81
  
  
  ***************************
  Subcatchment Runoff Summary
  ***************************
  
  ------------------------------------------------------------------------------------------------------------------------------
                            Total      Total      Total      Total     Imperv       Perv      Total       Total     Peak  Runoff
                           Precip      Runon       Evap      Infil     Runoff     Runoff     Runoff      Runoff   Runoff   Coeff
  Subcatchment                 mm         mm         mm         mm         mm         mm         mm    10^6 ltr      CMS
  ------------------------------------------------------------------------------------------------------------------------------
  2707                       4.20       0.00       0.00       3.15       1.04       0.00       1.04        0.05     0.00   0.248
  2708                       4.20       0.00       0.00       3.15       1.04       0.00       1.04        0.05     0.00   0.248
  2709                       4.20       0.00       0.00       3.15       1.04       0.00       1.04        0.05     0.00   0.248
  2710                       4.20       0.00       0.00       3.15       1.04       0.00       1.04        0.05     0.00   0.248
  2712                       4.20       0.00       0.00       3.15       1.04       0.00       1.04        0.05     0.00   0.248
  2713                       4.20       0.00       0.00       3.15       1.04       0.00       1.04        0.05     0.00   0.248
  2714                       4.20       0.00       0.00       3.15       1.04       0.00       1.04        0.05     0.00   0.248
  2715                       4.20       0.00       0.00       3.15       1.04       0.00       1.04        0.05     0.00   0.248
  2716                       4.20       0.00       0.00       3.15       1.04       0.00       1.04        0.05     0.00   0.248
  2717                       4.20       0.00       0.00       3.15       1.04       0.00       1.04        0.05     0.00   0.248
  2718                       4.20       0.00       0.00       3.15       1.04       0.00       1.04        0.05     0.00   0.248
  2719                       4.20       0.00       0.00       3.15       1.04       0.00       1.04        0.05     0.00   0.248
  2721                       4.20       0.00       0.00       3.15       1.04       0.00       1.04        0.05     0.00   0.248
  2722                       4.20       0.00       0.00       3.15       1.04       0.00       1.04        0.05     0.00   0.248
  2723                       4.20       0.00       0.00       3.15       1.04       0.00       1.04        0.05     0.00   0.248
  2724                       4.20       0.00       0.00       3.15       1.04       0.00       1.04        0.05     0.00   0.248
  2725                       4.20       0.00       0.00       3.15       1.04       0.00       1.04        0.05     0.00   0.248
  2726                       4.20       0.00       0.00       3.15       1.04       0.00       1.04        0.05     0.00   0.248
  2727                       4.20       0.00       0.00       3.15       1.04       0.00       1.04        0.05     0.00   0.248
  2728                       4.20       0.00       0.00       3.15       1.04       0.00       1.04        0.05     0.00   0.248
  2729                       4.20       0.00       0.00       3.15       1.04       0.00       1.04        0.05     0.00   0.248
  2730                       4.20       0.00       0.00       3.15       1.04       0.00       1.04        0.05     0.00   0.248
  2731                       4.20       0.00       0.00       3.15       1.04       0.00       1.04        0.05     0.00   0.248
  2732                       4.20       0.00       0.00       3.15       1.04       0.00       1.04        0.05     0.00   0.248
  2733                       4.20       0.00       0.00       3.15       1.04       0.00       1.04        0.05     0.00   0.248
  2734                       4.20       0.00       0.00       3.15       1.04       0.00       1.04        0.05     0.00   0.248
  2735                       4.20       0.00       0.00       3.15       1.04       0.00       1.04        0.05     0.00   0.248
  2736                       4.20       0.00       0.00       3.15       1.04       0.00       1.04        0.05     0.00   0.248
  2737                       4.20       0.00       0.00       3.15       1.04       0.00       1.04        0.05     0.00   0.248
  2738                       4.20       0.00       0.00       3.15       1.04       0.00       1.04        0.05     0.00   0.248
  2739                       4.20       0.00       0.00       3.15       1.04       0.00       1.04        0.05     0.00   0.248
  2740                       4.20       0.00       0.00       3.15       1.04       0.00       1.04        0.05     0.00   0.248
  2741                       4.20       0.00       0.00       3.15       1.04       0.00       1.04        0.05     0.00   0.248
  2742                       4.20       0.00       0.00       3.15       1.04       0.00       1.04        0.05     0.00   0.248
  2743                       4.20       0.00       0.00       3.15       1.04       0.00       1.04        0.05     0.00   0.248
  2744                       4.20       0.00       0.00       3.15       1.04       0.00       1.04        0.05     0.00   0.248
  2745                       4.20       0.00       0.00       3.15       1.04       0.00       1.04        0.05     0.00   0.248
  2746                       4.20       0.00       0.00       3.15       1.04       0.00       1.04        0.05     0.00   0.248
  2747                       4.20       0.00       0.00       3.15       1.04       0.00       1.04        0.05     0.00   0.248
  2748                       4.20       0.00       0.00       3.15       1.04       0.00       1.04        0.05     0.00   0.248
  2749                       4.20       0.00       0.00       3.15       1.04       0.00       1.04        0.05     0.00   0.248
  2750                       4.20       0.00       0.00       3.15       1.04       0.00       1.04        0.05     0.00   0.248
  2751                       4.20       0.00       0.00       3.15       1.04       0.00       1.04        0.05     0.00   0.248
  2752                       4.20       0.00       0.00       3.15       1.04       0.00       1.04        0.05     0.00   0.248
  2753                       4.20       0.00       0.00       3.15       1.04       0.00       1.04        0.05     0.00   0.248
  2754                       4.20       0.00       0.00       3.15       1.04       0.00       1.04        0.05     0.00   0.248
  2755                       4.20       0.00       0.00       3.15       1.04       0.00       1.04        0.05     0.00   0.248
  2756                       4.20       0.00       0.00       3.15       1.04       0.00       1.04        0.05     0.00   0.248
  2964                       4.20       0.00       0.00       3.15       1.04       0.00       1.04        0.05     0.00   0.248
  2969                       4.20       0.00       0.00       3.15       1.04       0.00       1.04        0.05     0.00   0.248
  2970                       4.20       0.00       0.00       3.15       1.04       0.00       1.04        0.05     0.00   0.248
  2974                       4.20       0.00       0.00       3.15       1.04       0.00       1.04        0.05     0.00   0.248
  2975                       4.20       0.00       0.00       3.15       1.04       0.00       1.04        0.05     0.00   0.248
  2976                       4.20       0.00       0.00       3.15       1.04       0.00       1.04        0.05     0.00   0.248
  2977                       4.20       0.00       0.00       3.15       1.04       0.00       1.04        0.05     0.00   0.248
  2978                       4.20       0.00       0.00       3.15       1.04       0.00       1.04        0.05     0.00   0.248
  2979                       4.20       0.00       0.00       3.15       1.04       0.00       1.04        0.05     0.00   0.248
  2980                       4.20       0.00       0.00       3.15       1.04       0.00       1.04        0.05     0.00   0.248
  2981                       4.20       0.00       0.00       3.15       1.04       0.00       1.04        0.05     0.00   0.248
  2982                       4.20       0.00       0.00       3.15       1.04       0.00       1.04        0.05     0.00   0.248
  2984                       4.20       0.00       0.00       3.15       1.04       0.00       1.04        0.05     0.00   0.248
  2985                       4.20       0.00       0.00       3.15       1.04       0.00       1.04        0.05     0.00   0.248
  3925                       4.20       0.00       0.00       3.15       1.04       0.00       1.04        0.05     0.00   0.248
  3926                       4.20       0.00       0.00       3.15       1.04       0.00       1.04        0.05     0.00   0.248
  3927                       4.20       0.00       0.00       3.15       1.04       0.00       1.04        0.05     0.00   0.248
  3928                       4.20       0.00       0.00       3.15       1.04       0.00       1.04        0.05     0.00   0.248
  3929                       4.20       0.00       0.00       3.15       1.04       0.00       1.04        0.05     0.00   0.248
  3930                       4.20       0.00       0.00       3.15       1.04       0.00       1.04        0.05     0.00   0.248
  3931                       4.20       0.00       0.00       3.15       1.04       0.00       1.04        0.05     0.00   0.248
  3932                       4.20       0.00       0.00       3.15       1.04       0.00       1.04        0.05     0.00   0.248
  3933                       4.20       0.00       0.00       3.15       1.04       0.00       1.04        0.05     0.00   0.248
  3934                       4.20       0.00       0.00       3.15       1.04       0.00       1.04        0.05     0.00   0.248
  3935                       4.20       0.00       0.00       3.15       1.04       0.00       1.04        0.05     0.00   0.248
  3936                       4.20       0.00       0.00       3.15       1.04       0.00       1.04        0.05     0.00   0.248
  3937                       4.20       0.00       0.00       3.15       1.04       0.00       1.04        0.05     0.00   0.248
  3938                       4.20       0.00       0.00       3.15       1.04       0.00       1.04        0.05     0.00   0.248
  3939                       4.20       0.00       0.00       3.15       1.04       0.00       1.04        0.05     0.00   0.248
  3940                       4.20       0.00       0.00       3.15       1.04       0.00       1.04        0.05     0.00   0.248
  3941                       4.20       0.00       0.00       3.15       1.04       0.00       1.04        0.05     0.00   0.248
  3942                       4.20       0.00       0.00       3.15       1.04       0.00       1.04        0.05     0.00   0.248
  3943                       4.20       0.00       0.00       3.15       1.04       0.00       1.04        0.05     0.00   0.248
  3944                       4.20       0.00       0.00       3.15       1.04       0.00       1.04        0.05     0.00   0.248
  3945                       4.20       0.00       0.00       3.15       1.04       0.00       1.04        0.05     0.00   0.248
  3946                       4.20       0.00       0.00       3.15       1.04       0.00       1.04        0.05     0.00   0.248
  3947                       4.20       0.00       0.00       3.15       1.04       0.00       1.04        0.05     0.00   0.248
  3948                       4.20       0.00       0.00       3.15       1.04       0.00       1.04        0.05     0.00   0.248
  3949                       4.20       0.00       0.00       3.15       1.04       0.00       1.04        0.05     0.00   0.248
  3950                       4.20       0.00       0.00       3.15       1.04       0.00       1.04        0.05     0.00   0.248
  3951                       4.20       0.00       0.00       3.15       1.04       0.00       1.04        0.05     0.00   0.248
  3952                       4.20       0.00       0.00       3.15       1.04       0.00       1.04        0.05     0.00   0.248
  3953                       4.20       0.00       0.00       3.15       1.04       0.00       1.04        0.05     0.00   0.248
  3954                       4.20       0.00       0.00       3.15       1.04       0.00       1.04        0.05     0.00   0.248
  3955                       4.20       0.00       0.00       3.15       1.04       0.00       1.04        0.05     0.00   0.248
  3956                       4.20       0.00       0.00       3.15       1.04       0.00       1.04        0.05     0.00   0.248
  4032                       4.20       0.00       0.00       3.15       1.04       0.00       1.04        0.05     0.00   0.248
  4033                       4.20       0.00       0.00       3.15       1.04       0.00       1.04        0.05     0.00   0.248
  4041                       4.20       0.00       0.00       3.15       1.04       0.00       1.04        0.05     0.00   0.248
  4051                       4.20       0.00       0.00       3.15       1.04       0.00       1.04        0.05     0.00   0.248
  4055                       4.20       0.00       0.00       3.15       1.04       0.00       1.04        0.05     0.00   0.248
  4056                       4.20       0.00       0.00       3.15       1.04       0.00       1.04        0.05     0.00   0.248
  4058                       4.20       0.00       0.00       3.15       1.04       0.00       1.04        0.05     0.00   0.248
  4385                       4.20       0.00       0.00       3.15       1.04       0.00       1.04        0.05     0.00   0.248
  4386                       4.20       0.00       0.00       3.15       1.04       0.00       1.04        0.05     0.00   0.248
  4387                       4.20       0.00       0.00       3.15       1.04       0.00       1.04        0.05     0.00   0.248
  4388                       4.20       0.00       0.00       3.15       1.04       0.00       1.04        0.05     0.00   0.248
  4389                       4.20       0.00       0.00       3.15       1.04       0.00       1.04        0.05     0.00   0.248
  4390                       4.20       0.00       0.00       3.15       1.04       0.00       1.04        0.05     0.00   0.248
  4391                       4.20       0.00       0.00       3.15       1.04       0.00       1.04        0.05     0.00   0.248
  4392                       4.20       0.00       0.00       3.15       1.04       0.00       1.04        0.05     0.00   0.248
  4393                       4.20       0.00       0.00       3.15       1.04       0.00       1.04        0.05     0.00   0.248
  4394                       4.20       0.00       0.00       3.15       1.04       0.00       1.04        0.05     0.00   0.248
  4395                       4.20       0.00       0.00       3.15       1.04       0.00       1.04        0.05     0.00   0.248
  4396                       4.20       0.00       0.00       3.15       1.04       0.00       1.04        0.05     0.00   0.248
  4397                       4.20       0.00       0.00       3.15       1.04       0.00       1.04        0.05     0.00   0.248
  4398                       4.20       0.00       0.00       3.15       1.04       0.00       1.04        0.05     0.00   0.248
  4429                       4.20       0.00       0.00       3.15       1.04       0.00       1.04        0.05     0.00   0.248
  4430                       4.20       0.00       0.00       3.15       1.04       0.00       1.04        0.05     0.00   0.248
  4431                       4.20       0.00       0.00       3.15       1.04       0.00       1.04        0.05     0.00   0.248
  4432                       4.20       0.00       0.00       3.15       1.04       0.00       1.04        0.05     0.00   0.248
  4433                       4.20       0.00       0.00       3.15       1.04       0.00       1.04        0.05     0.00   0.248
  4434                       4.20       0.00       0.00       3.15       1.04       0.00       1.04        0.05     0.00   0.248
  4435                       4.20       0.00       0.00       3.15       1.04       0.00       1.04        0.05     0.00   0.248
  4436                       4.20       0.00       0.00       3.15       1.04       0.00       1.04        0.05     0.00   0.248
  4437                       4.20       0.00       0.00       3.15       1.04       0.00       1.04        0.05     0.00   0.248
  4438                       4.20       0.00       0.00       3.15       1.04       0.00       1.04        0.05     0.00   0.248
  4439                       4.20       0.00       0.00       3.15       1.04       0.00       1.04        0.05     0.00   0.248
  4440                       4.20       0.00       0.00       3.15       1.04       0.00       1.04        0.05     0.00   0.248
  4441                       4.20       0.00       0.00       3.15       1.04       0.00       1.04        0.05     0.00   0.248
  4442                       4.20       0.00       0.00       3.15       1.04       0.00       1.04        0.05     0.00   0.248
  4443                       4.20       0.00       0.00       3.15       1.04       0.00       1.04        0.05     0.00   0.248
  4444                       4.20       0.00       0.00       3.15       1.04       0.00       1.04        0.05     0.00   0.248
  4445                       4.20       0.00       0.00       3.15       1.04       0.00       1.04        0.05     0.00   0.248
  4446                       4.20       0.00       0.00       3.15       1.04       0.00       1.04        0.05     0.00   0.248
  4447                       4.20       0.00       0.00       3.15       1.04       0.00       1.04        0.05     0.00   0.248
  4448                       4.20       0.00       0.00       3.15       1.04       0.00       1.04        0.05     0.00   0.248
  4449                       4.20       0.00       0.00       3.15       1.04       0.00       1.04        0.05     0.00   0.248
  4450                       4.20       0.00       0.00       3.15       1.04       0.00       1.04        0.05     0.00   0.248
  4451                       4.20       0.00       0.00       3.15       1.04       0.00       1.04        0.05     0.00   0.248
  4452                       4.20       0.00       0.00       3.15       1.04       0.00       1.04        0.05     0.00   0.248
  4453                       4.20       0.00       0.00       3.15       1.04       0.00       1.04        0.05     0.00   0.248
  4454                       4.20       0.00       0.00       3.15       1.04       0.00       1.04        0.05     0.00   0.248
  4462                       4.20       0.00       0.00       3.15       1.04       0.00       1.04        0.05     0.00   0.248
  4463                       4.20       0.00       0.00       3.15       1.04       0.00       1.04        0.05     0.00   0.248
  4563                       4.20       0.00       0.00       3.15       1.04       0.00       1.04        0.05     0.00   0.248
  4564                       4.20       0.00       0.00       3.15       1.04       0.00       1.04        0.05     0.00   0.248
  4565                       4.20       0.00       0.00       3.15       1.04       0.00       1.04        0.05     0.00   0.248
  4566                       4.20       0.00       0.00       3.15       1.04       0.00       1.04        0.05     0.00   0.248
  4567                       4.20       0.00       0.00       3.15       1.04       0.00       1.04        0.05     0.00   0.248
  4568                       4.20       0.00       0.00       3.15       1.04       0.00       1.04        0.05     0.00   0.248
  4569                       4.20       0.00       0.00       3.15       1.04       0.00       1.04        0.05     0.00   0.248
  4570                       4.20       0.00       0.00       3.15       1.04       0.00       1.04        0.05     0.00   0.248
  4571                       4.20       0.00       0.00       3.15       1.04       0.00       1.04        0.05     0.00   0.248
  4572                       4.20       0.00       0.00       3.15       1.04       0.00       1.04        0.05     0.00   0.248
  4573                       4.20       0.00       0.00       3.15       1.04       0.00       1.04        0.05     0.00   0.248
  4574                       4.20       0.00       0.00       3.15       1.04       0.00       1.04        0.05     0.00   0.248
  4575                       4.20       0.00       0.00       3.15       1.04       0.00       1.04        0.05     0.00   0.248
  4576                       4.20       0.00       0.00       3.15       1.04       0.00       1.04        0.05     0.00   0.248
  4577                       4.20       0.00       0.00       3.15       1.04       0.00       1.04        0.05     0.00   0.248
  4578                       4.20       0.00       0.00       3.15       1.04       0.00       1.04        0.05     0.00   0.248
  4579                       4.20       0.00       0.00       3.15       1.04       0.00       1.04        0.05     0.00   0.248
  4580                       4.20       0.00       0.00       3.15       1.04       0.00       1.04        0.05     0.00   0.248
  4581                       4.20       0.00       0.00       3.15       1.04       0.00       1.04        0.05     0.00   0.248
  4624                       4.20       0.00       0.00       3.15       1.04       0.00       1.04        0.05     0.00   0.248
  4625                       4.20       0.00       0.00       3.15       1.04       0.00       1.04        0.05     0.00   0.248
  4644                       4.20       0.00       0.00       3.15       1.04       0.00       1.04        0.05     0.00   0.248
  4645                       4.20       0.00       0.00       3.15       1.04       0.00       1.04        0.05     0.00   0.248
  4646                       4.20       0.00       0.00       3.15       1.04       0.00       1.04        0.05     0.00   0.248
  4679                       4.20       0.00       0.00       3.15       1.04       0.00       1.04        0.05     0.00   0.248
  4680                       4.20       0.00       0.00       3.15       1.04       0.00       1.04        0.05     0.00   0.248
  4681                       4.20       0.00       0.00       3.15       1.04       0.00       1.04        0.05     0.00   0.248
  4682                       4.20       0.00       0.00       3.15       1.04       0.00       1.04        0.05     0.00   0.248
  4683                       4.20       0.00       0.00       3.15       1.04       0.00       1.04        0.05     0.00   0.248
  4711                       4.20       0.00       0.00       3.15       1.04       0.00       1.04        0.05     0.00   0.248
  4712                       4.20       0.00       0.00       3.15       1.04       0.00       1.04        0.05     0.00   0.248
  4713                       4.20       0.00       0.00       3.15       1.04       0.00       1.04        0.05     0.00   0.248
  4714                       4.20       0.00       0.00       3.15       1.04       0.00       1.04        0.05     0.00   0.248
  4715                       4.20       0.00       0.00       3.15       1.04       0.00       1.04        0.05     0.00   0.248
  4716                       4.20       0.00       0.00       3.15       1.04       0.00       1.04        0.05     0.00   0.248
  4717                       4.20       0.00       0.00       3.15       1.04       0.00       1.04        0.05     0.00   0.248
  4718                       4.20       0.00       0.00       3.15       1.04       0.00       1.04        0.05     0.00   0.248
  4722                       4.20       0.00       0.00       3.15       1.04       0.00       1.04        0.05     0.00   0.248
  4760                       4.20       0.00       0.00       3.15       1.04       0.00       1.04        0.05     0.00   0.248
  4761                       4.20       0.00       0.00       3.15       1.04       0.00       1.04        0.05     0.00   0.248
  4765                       4.20       0.00       0.00       3.15       1.04       0.00       1.04        0.05     0.00   0.248
  4766                       4.20       0.00       0.00       3.15       1.04       0.00       1.04        0.05     0.00   0.248
  4767                       4.20       0.00       0.00       3.15       1.04       0.00       1.04        0.05     0.00   0.248
  4768                       4.20       0.00       0.00       3.15       1.04       0.00       1.04        0.05     0.00   0.248
  4769                       4.20       0.00       0.00       3.15       1.04       0.00       1.04        0.05     0.00   0.248
  4855                       4.20       0.00       0.00       3.15       1.04       0.00       1.04        0.05     0.00   0.248
  4856                       4.20       0.00       0.00       3.15       1.04       0.00       1.04        0.05     0.00   0.248
  5284                       4.20       0.00       0.00       3.15       1.04       0.00       1.04        0.05     0.00   0.248
  5285                       4.20       0.00       0.00       3.15       1.04       0.00       1.04        0.05     0.00   0.248
  5286                       4.20       0.00       0.00       3.15       1.04       0.00       1.04        0.05     0.00   0.248
  5287                       4.20       0.00       0.00       3.15       1.04       0.00       1.04        0.05     0.00   0.248
  5288                       4.20       0.00       0.00       3.15       1.04       0.00       1.04        0.05     0.00   0.248
  5289                       4.20       0.00       0.00       3.15       1.04       0.00       1.04        0.05     0.00   0.248
  5290                       4.20       0.00       0.00       3.15       1.04       0.00       1.04        0.05     0.00   0.248
  5291                       4.20       0.00       0.00       3.15       1.04       0.00       1.04        0.05     0.00   0.248
  5292                       4.20       0.00       0.00       3.15       1.04       0.00       1.04        0.05     0.00   0.248
  5293                       4.20       0.00       0.00       3.15       1.04       0.00       1.04        0.05     0.00   0.248
  5294                       4.20       0.00       0.00       3.15       1.04       0.00       1.04        0.05     0.00   0.248
  5295                       4.20       0.00       0.00       3.15       1.04       0.00       1.04        0.05     0.00   0.248
  5296                       4.20       0.00       0.00       3.15       1.04       0.00       1.04        0.05     0.00   0.248
  5297                       4.20       0.00       0.00       3.15       1.04       0.00       1.04        0.05     0.00   0.248
  5298                       4.20       0.00       0.00       3.15       1.04       0.00       1.04        0.05     0.00   0.248
  5299                       4.20       0.00       0.00       3.15       1.04       0.00       1.04        0.05     0.00   0.248
  5300                       4.20       0.00       0.00       3.15       1.04       0.00       1.04        0.05     0.00   0.248
  5301                       4.20       0.00       0.00       3.15       1.04       0.00       1.04        0.05     0.00   0.248
  5302                       4.20       0.00       0.00       3.15       1.04       0.00       1.04        0.05     0.00   0.248
  5303                       4.20       0.00       0.00       3.15       1.04       0.00       1.04        0.05     0.00   0.248
  5304                       4.20       0.00       0.00       3.15       1.04       0.00       1.04        0.05     0.00   0.248
  5305                       4.20       0.00       0.00       3.15       1.04       0.00       1.04        0.05     0.00   0.248
  5306                       4.20       0.00       0.00       3.15       1.04       0.00       1.04        0.05     0.00   0.248
  5307                       4.20       0.00       0.00       3.15       1.04       0.00       1.04        0.05     0.00   0.248
  5308                       4.20       0.00       0.00       3.15       1.04       0.00       1.04        0.05     0.00   0.248
  5309                       4.20       0.00       0.00       3.15       1.04       0.00       1.04        0.05     0.00   0.248
  5310                       4.20       0.00       0.00       3.15       1.04       0.00       1.04        0.05     0.00   0.248
  5311                       4.20       0.00       0.00       3.15       1.04       0.00       1.04        0.05     0.00   0.248
  5312                       4.20       0.00       0.00       3.15       1.04       0.00       1.04        0.05     0.00   0.248
  5313                       4.20       0.00       0.00       3.15       1.04       0.00       1.04        0.05     0.00   0.248
  5314                       4.20       0.00       0.00       3.15       1.04       0.00       1.04        0.05     0.00   0.248
  5315                       4.20       0.00       0.00       3.15       1.04       0.00       1.04        0.05     0.00   0.248
  5316                       4.20       0.00       0.00       3.15       1.04       0.00       1.04        0.05     0.00   0.248
  5317                       4.20       0.00       0.00       3.15       1.04       0.00       1.04        0.05     0.00   0.248
  5318                       4.20       0.00       0.00       3.15       1.04       0.00       1.04        0.05     0.00   0.248
  5319                       4.20       0.00       0.00       3.15       1.04       0.00       1.04        0.05     0.00   0.248
  5320                       4.20       0.00       0.00       3.15       1.04       0.00       1.04        0.05     0.00   0.248
  5321                       4.20       0.00       0.00       3.15       1.04       0.00       1.04        0.05     0.00   0.248
  5322                       4.20       0.00       0.00       3.15       1.04       0.00       1.04        0.05     0.00   0.248
  5323                       4.20       0.00       0.00       3.15       1.04       0.00       1.04        0.05     0.00   0.248
  5324                       4.20       0.00       0.00       3.15       1.04       0.00       1.04        0.05     0.00   0.248
  5325                       4.20       0.00       0.00       3.15       1.04       0.00       1.04        0.05     0.00   0.248
  5326                       4.20       0.00       0.00       3.15       1.04       0.00       1.04        0.05     0.00   0.248
  5327                       4.20       0.00       0.00       3.15       1.04       0.00       1.04        0.05     0.00   0.248
  5328                       4.20       0.00       0.00       3.15       1.04       0.00       1.04        0.05     0.00   0.248
  5329                       4.20       0.00       0.00       3.15       1.04       0.00       1.04        0.05     0.00   0.248
  5330                       4.20       0.00       0.00       3.15       1.04       0.00       1.04        0.05     0.00   0.248
  5333                       4.20       0.00       0.00       3.15       1.04       0.00       1.04        0.05     0.00   0.248
  5334                       4.20       0.00       0.00       3.15       1.04       0.00       1.04        0.05     0.00   0.248
  6040                       4.20       0.00       0.00       3.15       1.04       0.00       1.04        0.05     0.00   0.248
  6041                       4.20       0.00       0.00       3.15       1.04       0.00       1.04        0.05     0.00   0.248
  6162                       4.20       0.00       0.00       3.15       1.04       0.00       1.04        0.05     0.00   0.248
  7207                       4.20       0.00       0.00       3.15       1.04       0.00       1.04        0.05     0.00   0.248
  7208                       4.20       0.00       0.00       3.15       1.04       0.00       1.04        0.05     0.00   0.248
  7213                       4.20       0.00       0.00       3.15       1.04       0.00       1.04        0.05     0.00   0.248
  7214                       4.20       0.00       0.00       3.15       1.04       0.00       1.04        0.05     0.00   0.248
  7219                       4.20       0.00       0.00       3.15       1.04       0.00       1.04        0.05     0.00   0.248
  7220                       4.20       0.00       0.00       3.15       1.04       0.00       1.04        0.05     0.00   0.248
  7221                       4.20       0.00       0.00       3.15       1.04       0.00       1.04        0.05     0.00   0.248
  7225                       4.20       0.00       0.00       3.15       1.04       0.00       1.04        0.05     0.00   0.248
  7229                       4.20       0.00       0.00       3.15       1.04       0.00       1.04        0.05     0.00   0.248
  7231                       4.20       0.00       0.00       3.15       1.04       0.00       1.04        0.05     0.00   0.248
  7268                       4.20       0.00       0.00       3.15       1.04       0.00       1.04        0.05     0.00   0.248
  7269                       4.20       0.00       0.00       3.15       1.04       0.00       1.04        0.05     0.00   0.248
  7271                       4.20       0.00       0.00       3.15       1.04       0.00       1.04        0.05     0.00   0.248
  7272                       4.20       0.00       0.00       3.15       1.04       0.00       1.04        0.05     0.00   0.248
  7273                       4.20       0.00       0.00       3.15       1.04       0.00       1.04        0.05     0.00   0.248
  7433                       4.20       0.00       0.00       3.15       1.04       0.00       1.04        0.05     0.00   0.248
  7434                       4.20       0.00       0.00       3.15       1.04       0.00       1.04        0.05     0.00   0.248
  7544                       4.20       0.00       0.00       3.15       1.04       0.00       1.04        0.05     0.00   0.248
  7545                       4.20       0.00       0.00       3.15       1.04       0.00       1.04        0.05     0.00   0.248
  8737                       4.20       0.00       0.00       3.15       1.04       0.00       1.04        0.05     0.00   0.248
  8818                       4.20       0.00       0.00       3.15       1.04       0.00       1.04        0.05     0.00   0.248
  9942                       4.20       0.00       0.00       3.15       1.04       0.00       1.04        0.05     0.00   0.248
  9957                       4.20       0.00       0.00       3.15       1.04       0.00       1.04        0.05     0.00   0.248
  4399                       4.20       0.00       0.00       3.15       1.04       0.00       1.04        0.05     0.00   0.248
  4400                       4.20       0.00       0.00       3.15       1.04       0.00       1.04        0.05     0.00   0.248
  4401                       4.20       0.00       0.00       3.15       1.04       0.00       1.04        0.05     0.00   0.248
  4402                       4.20       0.00       0.00       3.15       1.04       0.00       1.04        0.05     0.00   0.248
  4403                       4.20       0.00       0.00       3.15       1.04       0.00       1.04        0.05     0.00   0.248
  4404                       4.20       0.00       0.00       3.15       1.04       0.00       1.04        0.05     0.00   0.248
  4405                       4.20       0.00       0.00       3.15       1.04       0.00       1.04        0.05     0.00   0.248
  4406                       4.20       0.00       0.00       3.15       1.04       0.00       1.04        0.05     0.00   0.248
  4407                       4.20       0.00       0.00       3.15       1.04       0.00       1.04        0.05     0.00   0.248
  4408                       4.20       0.00       0.00       3.15       1.04       0.00       1.04        0.05     0.00   0.248
  4409                       4.20       0.00       0.00       3.15       1.04       0.00       1.04        0.05     0.00   0.248
  4410                       4.20       0.00       0.00       3.15       1.04       0.00       1.04        0.05     0.00   0.248
  4411                       4.20       0.00       0.00       3.15       1.04       0.00       1.04        0.05     0.00   0.248
  4412                       4.20       0.00       0.00       3.15       1.04       0.00       1.04        0.05     0.00   0.248
  4423                       4.20       0.00       0.00       3.15       1.04       0.00       1.04        0.05     0.00   0.248
  4424                       4.20       0.00       0.00       3.15       1.04       0.00       1.04        0.05     0.00   0.248
  4425                       4.20       0.00       0.00       3.15       1.04       0.00       1.04        0.05     0.00   0.248
  4426                       4.20       0.00       0.00       3.15       1.04       0.00       1.04        0.05     0.00   0.248
  4427                       4.20       0.00       0.00       3.15       1.04       0.00       1.04        0.05     0.00   0.248
  4428                       4.20       0.00       0.00       3.15       1.04       0.00       1.04        0.05     0.00   0.248
  4455                       4.20       0.00       0.00       3.15       1.04       0.00       1.04        0.05     0.00   0.248
  4456                       4.20       0.00       0.00       3.15       1.04       0.00       1.04        0.05     0.00   0.248
  4457                       4.20       0.00       0.00       3.15       1.04       0.00       1.04        0.05     0.00   0.248
  4458                       4.20       0.00       0.00       3.15       1.04       0.00       1.04        0.05     0.00   0.248
  4459                       4.20       0.00       0.00       3.15       1.04       0.00       1.04        0.05     0.00   0.248
  4460                       4.20       0.00       0.00       3.15       1.04       0.00       1.04        0.05     0.00   0.248
  4461                       4.20       0.00       0.00       3.15       1.04       0.00       1.04        0.05     0.00   0.248
  4464                       4.20       0.00       0.00       3.15       1.04       0.00       1.04        0.05     0.00   0.248
  4465                       4.20       0.00       0.00       3.15       1.04       0.00       1.04        0.05     0.00   0.248
  4466                       4.20       0.00       0.00       3.15       1.04       0.00       1.04        0.05     0.00   0.248
  4467                       4.20       0.00       0.00       3.15       1.04       0.00       1.04        0.05     0.00   0.248
  4468                       4.20       0.00       0.00       3.15       1.04       0.00       1.04        0.05     0.00   0.248
  4469                       4.20       0.00       0.00       3.15       1.04       0.00       1.04        0.05     0.00   0.248
  4470                       4.20       0.00       0.00       3.15       1.04       0.00       1.04        0.05     0.00   0.248
  4471                       4.20       0.00       0.00       3.15       1.04       0.00       1.04        0.05     0.00   0.248
  4472                       4.20       0.00       0.00       3.15       1.04       0.00       1.04        0.05     0.00   0.248
  4473                       4.20       0.00       0.00       3.15       1.04       0.00       1.04        0.05     0.00   0.248
  4474                       4.20       0.00       0.00       3.15       1.04       0.00       1.04        0.05     0.00   0.248
  4628                       4.20       0.00       0.00       3.15       1.04       0.00       1.04        0.05     0.00   0.248
  4631                       4.20       0.00       0.00       3.15       1.04       0.00       1.04        0.05     0.00   0.248
  4632                       4.20       0.00       0.00       3.15       1.04       0.00       1.04        0.05     0.00   0.248
  4633                       4.20       0.00       0.00       3.15       1.04       0.00       1.04        0.05     0.00   0.248
  4634                       4.20       0.00       0.00       3.15       1.04       0.00       1.04        0.05     0.00   0.248
  4637                       4.20       0.00       0.00       3.15       1.04       0.00       1.04        0.05     0.00   0.248
  4686                       4.20       0.00       0.00       3.15       1.04       0.00       1.04        0.05     0.00   0.248
  4687                       4.20       0.00       0.00       3.15       1.04       0.00       1.04        0.05     0.00   0.248
  4688                       4.20       0.00       0.00       3.15       1.04       0.00       1.04        0.05     0.00   0.248
  5032                       4.20       0.00       0.00       3.15       1.04       0.00       1.04        0.05     0.00   0.248
  5331                       4.20       0.00       0.00       3.15       1.04       0.00       1.04        0.05     0.00   0.248
  5332                       4.20       0.00       0.00       3.15       1.04       0.00       1.04        0.05     0.00   0.248
  5335                       4.20       0.00       0.00       3.15       1.04       0.00       1.04        0.05     0.00   0.248
  5336                       4.20       0.00       0.00       3.15       1.04       0.00       1.04        0.05     0.00   0.248
  5337                       4.20       0.00       0.00       3.15       1.04       0.00       1.04        0.05     0.00   0.248
  5338                       4.20       0.00       0.00       3.15       1.04       0.00       1.04        0.05     0.00   0.248
  5339                       4.20       0.00       0.00       3.15       1.04       0.00       1.04        0.05     0.00   0.248
  5340                       4.20       0.00       0.00       3.15       1.04       0.00       1.04        0.05     0.00   0.248
  5341                       4.20       0.00       0.00       3.15       1.04       0.00       1.04        0.05     0.00   0.248
  5342                       4.20       0.00       0.00       3.15       1.04       0.00       1.04        0.05     0.00   0.248
  5343                       4.20       0.00       0.00       3.15       1.04       0.00       1.04        0.05     0.00   0.248
  5344                       4.20       0.00       0.00       3.15       1.04       0.00       1.04        0.05     0.00   0.248
  5345                       4.20       0.00       0.00       3.15       1.04       0.00       1.04        0.05     0.00   0.248
  5346                       4.20       0.00       0.00       3.15       1.04       0.00       1.04        0.05     0.00   0.248
  5347                       4.20       0.00       0.00       3.15       1.04       0.00       1.04        0.05     0.00   0.248
  5348                       4.20       0.00       0.00       3.15       1.04       0.00       1.04        0.05     0.00   0.248
  5349                       4.20       0.00       0.00       3.15       1.04       0.00       1.04        0.05     0.00   0.248
  5350                       4.20       0.00       0.00       3.15       1.04       0.00       1.04        0.05     0.00   0.248
  6088                       4.20       0.00       0.00       3.15       1.04       0.00       1.04        0.05     0.00   0.248
  7275                       4.20       0.00       0.00       3.15       1.04       0.00       1.04        0.05     0.00   0.248
  9955                       4.20       0.00       0.00       3.15       1.04       0.00       1.04        0.05     0.00   0.248
  9956                       4.20       0.00       0.00       3.15       1.04       0.00       1.04        0.05     0.00   0.248
  
  
  ****************************
  Subcatchment Washoff Summary
  ****************************
  
  ----------------------------------
                                 COD
  Subcatchment                    kg
  ----------------------------------
  2707                        13.681
  2708                        13.681
  2709                        13.681
  2710                        13.681
  2712                        13.681
  2713                        13.681
  2714                        13.681
  2715                        13.681
  2716                        13.681
  2717                        13.681
  2718                        13.681
  2719                        13.681
  2721                        13.681
  2722                        13.681
  2723                        13.681
  2724                        13.681
  2725                        13.681
  2726                        13.681
  2727                        13.681
  2728                        13.681
  2729                        13.681
  2730                        13.681
  2731                        13.681
  2732                        13.681
  2733                        13.681
  2734                        13.681
  2735                        13.681
  2736                        13.681
  2737                        13.681
  2738                        13.681
  2739                        13.681
  2740                        13.681
  2741                        13.681
  2742                        13.681
  2743                        13.681
  2744                        13.681
  2745                        13.681
  2746                        13.681
  2747                        13.681
  2748                        13.681
  2749                        13.681
  2750                        13.681
  2751                        13.681
  2752                        13.681
  2753                        13.681
  2754                        13.681
  2755                        13.681
  2756                        13.681
  2964                        13.681
  2969                        13.681
  2970                        13.681
  2974                        13.681
  2975                        13.681
  2976                        13.681
  2977                        13.681
  2978                        13.681
  2979                        13.681
  2980                        13.681
  2981                        13.681
  2982                        13.681
  2984                        13.681
  2985                        13.681
  3925                        13.681
  3926                        13.681
  3927                        13.681
  3928                        13.681
  3929                        13.681
  3930                        13.681
  3931                        13.681
  3932                        13.681
  3933                        13.681
  3934                        13.681
  3935                        13.681
  3936                        13.681
  3937                        13.681
  3938                        13.681
  3939                        13.681
  3940                        13.681
  3941                        13.681
  3942                        13.681
  3943                        13.681
  3944                        13.681
  3945                        13.681
  3946                        13.681
  3947                        13.681
  3948                        13.681
  3949                        13.681
  3950                        13.681
  3951                        13.681
  3952                        13.681
  3953                        13.681
  3954                        13.681
  3955                        13.681
  3956                        13.681
  4032                        13.681
  4033                        13.681
  4041                        13.681
  4051                        13.681
  4055                        13.681
  4056                        13.681
  4058                        13.681
  4385                        13.681
  4386                        13.681
  4387                        13.681
  4388                        13.681
  4389                        13.681
  4390                        13.681
  4391                        13.681
  4392                        13.681
  4393                        13.681
  4394                        13.681
  4395                        13.681
  4396                        13.681
  4397                        13.681
  4398                        13.681
  4429                        13.681
  4430                        13.681
  4431                        13.681
  4432                        13.681
  4433                        13.681
  4434                        13.681
  4435                        13.681
  4436                        13.681
  4437                        13.681
  4438                        13.681
  4439                        13.681
  4440                        13.681
  4441                        13.681
  4442                        13.681
  4443                        13.681
  4444                        13.681
  4445                        13.681
  4446                        13.681
  4447                        13.681
  4448                        13.681
  4449                        13.681
  4450                        13.681
  4451                        13.681
  4452                        13.681
  4453                        13.681
  4454                        13.681
  4462                        13.681
  4463                        13.681
  4563                        13.681
  4564                        13.681
  4565                        13.681
  4566                        13.681
  4567                        13.681
  4568                        13.681
  4569                        13.681
  4570                        13.681
  4571                        13.681
  4572                        13.681
  4573                        13.681
  4574                        13.681
  4575                        13.681
  4576                        13.681
  4577                        13.681
  4578                        13.681
  4579                        13.681
  4580                        13.681
  4581                        13.681
  4624                        13.681
  4625                        13.681
  4644                        13.681
  4645                        13.681
  4646                        13.681
  4679                        13.681
  4680                        13.681
  4681                        13.681
  4682                        13.681
  4683                        13.681
  4711                        13.681
  4712                        13.681
  4713                        13.681
  4714                        13.681
  4715                        13.681
  4716                        13.681
  4717                        13.681
  4718                        13.681
  4722                        13.681
  4760                        13.681
  4761                        13.681
  4765                        13.681
  4766                        13.681
  4767                        13.681
  4768                        13.681
  4769                        13.681
  4855                        13.681
  4856                        13.681
  5284                        13.681
  5285                        13.681
  5286                        13.681
  5287                        13.681
  5288                        13.681
  5289                        13.681
  5290                        13.681
  5291                        13.681
  5292                        13.681
  5293                        13.681
  5294                        13.681
  5295                        13.681
  5296                        13.681
  5297                        13.681
  5298                        13.681
  5299                        13.681
  5300                        13.681
  5301                        13.681
  5302                        13.681
  5303                        13.681
  5304                        13.681
  5305                        13.681
  5306                        13.681
  5307                        13.681
  5308                        13.681
  5309                        13.681
  5310                        13.681
  5311                        13.681
  5312                        13.681
  5313                        13.681
  5314                        13.681
  5315                        13.681
  5316                        13.681
  5317                        13.681
  5318                        13.681
  5319                        13.681
  5320                        13.681
  5321                        13.681
  5322                        13.681
  5323                        13.681
  5324                        13.681
  5325                        13.681
  5326                        13.681
  5327                        13.681
  5328                        13.681
  5329                        13.681
  5330                        13.681
  5333                        13.681
  5334                        13.681
  6040                        13.681
  6041                        13.681
  6162                        13.681
  7207                        13.681
  7208                        13.681
  7213                        13.681
  7214                        13.681
  7219                        13.681
  7220                        13.681
  7221                        13.681
  7225                        13.681
  7229                        13.681
  7231                        13.681
  7268                        13.681
  7269                        13.681
  7271                        13.681
  7272                        13.681
  7273                        13.681
  7433                        13.681
  7434                        13.681
  7544                        13.681
  7545                        13.681
  8737                        13.681
  8818                        13.681
  9942                        13.681
  9957                        13.681
  4399                        13.681
  4400                        13.681
  4401                        13.681
  4402                        13.681
  4403                        13.681
  4404                        13.681
  4405                        13.681
  4406                        13.681
  4407                        13.681
  4408                        13.681
  4409                        13.681
  4410                        13.681
  4411                        13.681
  4412                        13.681
  4423                        13.681
  4424                        13.681
  4425                        13.681
  4426                        13.681
  4427                        13.681
  4428                        13.681
  4455                        13.681
  4456                        13.681
  4457                        13.681
  4458                        13.681
  4459                        13.681
  4460                        13.681
  4461                        13.681
  4464                        13.681
  4465                        13.681
  4466                        13.681
  4467                        13.681
  4468                        13.681
  4469                        13.681
  4470                        13.681
  4471                        13.681
  4472                        13.681
  4473                        13.681
  4474                        13.681
  4628                        13.681
  4631                        13.681
  4632                        13.681
  4633                        13.681
  4634                        13.681
  4637                        13.681
  4686                        13.681
  4687                        13.681
  4688                        13.681
  5032                        13.681
  5331                        13.681
  5332                        13.681
  5335                        13.681
  5336                        13.681
  5337                        13.681
  5338                        13.681
  5339                        13.681
  5340                        13.681
  5341                        13.681
  5342                        13.681
  5343                        13.681
  5344                        13.681
  5345                        13.681
  5346                        13.681
  5347                        13.681
  5348                        13.681
  5349                        13.681
  5350                        13.681
  6088                        13.681
  7275                        13.681
  9955                        13.681
  9956                        13.681
  ----------------------------------
  System                    4583.174
  
  
  ******************
  Node Depth Summary
  ******************
  
  ---------------------------------------------------------------------------------
                                 Average  Maximum  Maximum  Time of Max    Reported
                                   Depth    Depth      HGL   Occurrence   Max Depth
  Node                 Type       Meters   Meters   Meters  days hr:min      Meters
  ---------------------------------------------------------------------------------
  Node_02706           JUNCTION     2.39     4.74   101.58     1  07:18        0.00
  Node_02707           JUNCTION     0.68     1.94   101.37     1  06:00        0.00
  Node_02708           JUNCTION     0.64     1.69   101.45     1  06:01        0.00
  Node_02709           JUNCTION     0.73     1.82   101.45     1  06:01        0.00
  Node_02711           JUNCTION     0.39     1.54   101.45     1  06:01        0.00
  Node_02712           JUNCTION     0.39     1.55   101.45     1  06:01        0.00
  Node_02713           JUNCTION     0.44     1.60   101.45     1  06:01        0.00
  Node_02714           JUNCTION     0.19     1.05   101.45     1  06:01        0.00
  Node_02715           JUNCTION     0.43     1.63   101.43     1  06:01        0.00
  Node_02716           JUNCTION     0.47     1.70   101.42     1  06:01        0.00
  Node_02717           JUNCTION     0.51     1.78   101.41     1  06:00        0.00
  Node_02718           JUNCTION     0.52     1.81   101.41     1  06:01        0.00
  Node_02720           JUNCTION     0.53     1.83   101.40     1  06:01        0.00
  Node_02721           JUNCTION     0.82     2.13   101.38     1  06:01        0.00
  Node_02722           JUNCTION     0.13     0.15   101.95     1  09:00        0.00
  Node_02723           JUNCTION     0.75     2.08   101.37     1  06:00        0.00
  Node_02724           JUNCTION     0.60     1.94   101.36     1  06:01        0.00
  Node_02725           JUNCTION     0.62     1.97   101.33     1  06:01        0.00
  Node_02726           JUNCTION     0.68     2.05   101.32     1  06:00        0.00
  Node_02727           JUNCTION     0.76     2.17   101.30     1  06:00        0.00
  Node_02728           JUNCTION     0.33     1.22   101.30     1  06:00        0.00
  Node_02729           JUNCTION     0.80     2.22   101.28     1  06:01        0.00
  Node_02730           JUNCTION     0.81     2.23   101.26     1  06:00        0.00
  Node_02731           JUNCTION     1.22     2.65   101.24     1  06:01        0.00
  Node_02732           JUNCTION     0.79     2.19   101.21     1  06:00        0.00
  Node_02733           JUNCTION     0.78     2.25   101.25     1  08:42        0.00
  Node_02734           JUNCTION     1.06     2.57   101.28     1  07:00        0.00
  Node_02735           JUNCTION     0.96     2.47   101.28     1  08:42        0.00
  Node_02736           JUNCTION     1.15     2.68   101.29     1  07:00        0.00
  Node_02737           JUNCTION     1.13     2.69   101.31     1  10:44        0.00
  Node_02738           JUNCTION     0.96     2.57   101.34     1  08:42        0.00
  Node_02739           JUNCTION     0.82     2.50   101.37     1  08:42        0.00
  Node_02740           JUNCTION     0.83     2.54   101.38     1  08:42        0.00
  Node_02741           JUNCTION     0.59     2.09   101.38     1  08:42        0.00
  Node_02742           JUNCTION     0.85     2.60   101.41     1  08:42        0.00
  Node_02743           JUNCTION     1.26     3.06   101.43     1  08:42        0.00
  Node_02744           JUNCTION     0.57     2.09   101.44     1  08:42        0.00
  Node_02745           JUNCTION     0.99     2.83   101.45     1  08:42        0.00
  Node_02746           JUNCTION     0.88     2.77   101.46     1  08:42        0.00
  Node_02747           JUNCTION     0.18     1.10   101.46     1  08:42        0.00
  Node_02748           JUNCTION     0.15     1.01   101.46     1  08:42        0.00
  Node_02749           JUNCTION     0.89     2.84   101.47     1  08:32        0.00
  Node_02750           JUNCTION     0.90     2.89   101.50     1  09:13        0.00
  Node_02751           JUNCTION     0.87     2.92   101.51     1  07:18        0.00
  Node_02752           JUNCTION     0.88     2.99   101.53     1  07:18        0.00
  Node_02753           JUNCTION     0.90     3.08   101.56     1  07:18        0.00
  Node_02754           JUNCTION     0.91     3.25   101.57     1  07:18        0.00
  Node_02755           JUNCTION     1.84     4.19   101.58     1  07:18        0.00
  Node_02963           JUNCTION     0.40     1.50   101.41     1  06:01        0.00
  Node_02968           JUNCTION     0.29     1.24   101.36     1  08:42        0.00
  Node_02969           JUNCTION     0.37     1.56   101.44     1  08:42        0.00
  Node_02973           JUNCTION     1.38     3.69   101.58     1  07:18        0.00
  Node_02974           JUNCTION     1.52     4.41   101.54     1  07:18        0.00
  Node_02975           JUNCTION     1.52     4.40   101.54     1  07:18        0.00
  Node_02976           JUNCTION     1.53     4.37   101.56     1  07:18        0.00
  Node_02977           JUNCTION     1.49     4.25   101.58     1  07:18        0.00
  Node_02978           JUNCTION     1.39     4.08   101.61     1  07:18        0.00
  Node_02979           JUNCTION     1.48     4.40   101.52     1  07:18        0.00
  Node_02980           JUNCTION     1.43     4.42   101.50     1  07:18        0.00
  Node_02981           JUNCTION     1.45     4.52   101.47     1  07:18        0.00
  Node_02983           JUNCTION     0.29     1.22   101.34     1  10:44        0.00
  Node_02984           JUNCTION     1.83     4.59   101.57     1  07:18        0.00
  Node_03924           JUNCTION     0.08     0.90   101.73     1  07:56        0.00
  Node_03925           JUNCTION     0.32     1.52   101.89     1  06:04        0.00
  Node_03926           JUNCTION     0.01     0.42   101.89     1  06:04        0.00
  Node_03927           JUNCTION     0.30     1.50   101.88     1  06:04        0.00
  Node_03928           JUNCTION     0.31     1.52   101.87     1  06:04        0.00
  Node_03929           JUNCTION     0.32     1.52   101.83     1  06:04        0.00
  Node_03930           JUNCTION     0.33     1.54   101.79     1  06:04        0.00
  Node_03931           JUNCTION     0.32     1.54   101.79     1  06:05        0.00
  Node_03932           JUNCTION     0.36     1.61   101.77     1  06:05        0.00
  Node_03933           JUNCTION     0.35     1.64   101.76     1  06:05        0.00
  Node_03934           JUNCTION     0.09     0.90   101.76     1  06:05        0.00
  Node_03935           JUNCTION     0.40     1.77   101.74     1  06:05        0.00
  Node_03936           JUNCTION     0.42     1.80   101.73     1  07:54        0.00
  Node_03937           JUNCTION     1.22     1.56   101.72     1  07:54        0.00
  Node_03938           JUNCTION     0.86     3.02   102.22     1  07:00        0.00
  Node_03939           JUNCTION     0.94     3.18   102.22     1  07:00        0.00
  Node_03940           JUNCTION     1.00     3.29   102.21     1  07:00        0.00
  Node_03941           JUNCTION     1.07     3.40   102.20     1  05:22        0.00
  Node_03942           JUNCTION     1.10     3.45   102.20     1  08:59        0.00
  Node_03943           JUNCTION     1.17     3.58   102.19     1  08:10        0.00
  Node_03944           JUNCTION     1.26     3.69   102.17     1  05:22        0.00
  Node_03945           JUNCTION     1.31     3.77   102.19     1  07:19        0.00
  Node_03946           JUNCTION     1.37     3.84   102.20     1  08:19        0.00
  Node_03947           JUNCTION     1.64     4.30   102.19     1  07:00        0.00
  Node_03948           JUNCTION     1.61     4.32   102.17     1  07:51        0.00
  Node_03949           JUNCTION     1.72     4.46   102.16     1  08:41        0.00
  Node_03950           JUNCTION     1.60     4.37   102.14     1  08:41        0.00
  Node_03951           JUNCTION     1.61     4.42   102.11     1  08:41        0.00
  Node_03952           JUNCTION     1.64     4.48   102.07     1  08:32        0.00
  Node_03953           JUNCTION     1.58     4.45   102.03     1  08:41        0.00
  Node_03954           JUNCTION     2.48     5.37   101.95     1  08:41        0.00
  Node_03955           JUNCTION     1.47     4.38   101.87     1  08:41        0.00
  Node_04031           JUNCTION     0.20     0.97   102.20     1  07:00        0.00
  Node_04032           JUNCTION     1.31     3.85   102.20     1  08:32        0.00
  Node_04040           JUNCTION     0.38     1.64   102.19     1  07:00        0.00
  Node_04050           JUNCTION     0.28     1.61   102.58     1  06:29        0.00
  Node_04054           JUNCTION     0.04     0.74   101.88     1  06:04        0.00
  Node_04055           JUNCTION     0.18     0.96   101.78     1  06:05        0.00
  Node_04057           JUNCTION     0.16     1.41   101.72     1  07:54        0.00
  Node_04384           JUNCTION     1.57     4.08   101.66     1  07:18        0.00
  Node_04385           JUNCTION     1.28     3.76   101.67     1  07:18        0.00
  Node_04386           JUNCTION     1.27     3.74   101.68     1  07:18        0.00
  Node_04387           JUNCTION     1.26     3.71   101.68     1  07:18        0.00
  Node_04388           JUNCTION     1.25     3.68   101.68     1  08:42        0.00
  Node_04389           JUNCTION     0.28     1.31   101.68     1  08:42        0.00
  Node_04390           JUNCTION     1.24     3.66   101.68     1  07:18        0.00
  Node_04391           JUNCTION     1.23     3.62   101.68     1  08:42        0.00
  Node_04392           JUNCTION     1.34     3.72   101.68     1  08:42        0.00
  Node_04393           JUNCTION     1.22     3.57   101.68     1  08:42        0.00
  Node_04394           JUNCTION     0.47     2.03   101.68     1  08:42        0.00
  Node_04395           JUNCTION     1.20     3.52   101.68     1  08:42        0.00
  Node_04396           JUNCTION     1.18     3.47   101.67     1  08:42        0.00
  Node_04397           JUNCTION     0.34     1.78   101.67     1  08:42        0.00
  Node_04428           JUNCTION     1.19     3.45   101.67     1  08:42        0.00
  Node_04429           JUNCTION     1.18     3.42   101.67     1  08:42        0.00
  Node_04430           JUNCTION     1.17     3.38   101.66     1  08:42        0.00
  Node_04431           JUNCTION     0.99     3.09   101.66     1  08:42        0.00
  Node_04432           JUNCTION     0.92     2.97   101.65     1  08:42        0.00
  Node_04433           JUNCTION     0.77     2.78   101.66     1  08:42        0.00
  Node_04434           JUNCTION     1.05     3.05   101.64     1  08:42        0.00
  Node_04435           JUNCTION     0.91     2.86   101.64     1  08:43        0.00
  Node_04436           JUNCTION     1.32     3.24   101.63     1  08:43        0.00
  Node_04437           JUNCTION     1.46     3.34   101.63     1  08:43        0.00
  Node_04438           JUNCTION     1.76     3.63   101.64     1  08:43        0.00
  Node_04439           JUNCTION     0.82     2.68   101.66     1  08:00        0.00
  Node_04440           JUNCTION     0.82     2.66   101.68     1  07:20        0.00
  Node_04441           JUNCTION     0.61     2.35   101.68     1  07:20        0.00
  Node_04442           JUNCTION     0.90     2.72   101.69     1  07:20        0.00
  Node_04443           JUNCTION     0.76     2.58   101.71     1  07:20        0.00
  Node_04444           JUNCTION     0.76     2.55   101.73     1  07:20        0.00
  Node_04445           JUNCTION     0.70     2.49   101.76     1  07:20        0.00
  Node_04446           JUNCTION     0.68     2.45   101.79     1  07:20        0.00
  Node_04447           JUNCTION     0.64     2.38   101.82     1  07:20        0.00
  Node_04448           JUNCTION     0.66     2.41   101.86     1  07:20        0.00
  Node_04449           JUNCTION     0.67     2.43   101.88     1  07:20        0.00
  Node_04450           JUNCTION     0.82     2.58   101.90     1  07:20        0.00
  Node_04451           JUNCTION     0.65     2.37   101.92     1  07:20        0.00
  Node_04452           JUNCTION     0.43     2.12   101.94     1  07:20        0.00
  Node_04453           JUNCTION     0.29     1.73   101.95     1  07:20        0.00
  Node_04461           JUNCTION     0.61     2.29   101.91     1  07:20        0.00
  Node_04462           JUNCTION     0.61     2.28   101.93     1  07:20        0.00
  Node_04562           JUNCTION     0.50     2.31   101.90     1  08:43        0.00
  Node_04563           JUNCTION     0.71     2.78   101.90     1  08:44        0.00
  Node_04564           JUNCTION     0.60     2.52   101.90     1  08:43        0.00
  Node_04565           JUNCTION     0.62     2.54   101.91     1  08:43        0.00
  Node_04566           JUNCTION     0.74     2.70   101.90     1  08:44        0.00
  Node_04567           JUNCTION     0.69     2.68   101.89     1  08:44        0.00
  Node_04568           JUNCTION     0.69     2.71   101.90     1  08:43        0.00
  Node_04569           JUNCTION     0.81     2.92   101.89     1  08:43        0.00
  Node_04570           JUNCTION     0.48     2.16   101.89     1  08:44        0.00
  Node_04571           JUNCTION     0.82     2.94   101.87     1  08:43        0.00
  Node_04572           JUNCTION     2.19     4.33   101.86     1  08:44        0.00
  Node_04573           JUNCTION     1.86     4.00   101.84     1  08:44        0.00
  Node_04574           JUNCTION     2.35     3.51   101.81     1  08:44        0.00
  Node_04575           JUNCTION     2.33     4.50   101.81     1  08:44        0.00
  Node_04576           JUNCTION     0.93     3.13   101.78     1  08:45        0.00
  Node_04577           JUNCTION     0.96     3.17   101.75     1  08:42        0.00
  Node_04578           JUNCTION     0.99     3.22   101.73     1  08:42        0.00
  Node_04579           JUNCTION     1.05     3.29   101.70     1  08:43        0.00
  Node_04580           JUNCTION     0.44     1.98   101.76     1  06:05        0.00
  Node_04623           JUNCTION     0.42     2.01   101.67     1  07:18        0.00
  Node_04624           JUNCTION     0.53     2.20   101.66     1  08:42        0.00
  Node_04643           JUNCTION     0.41     1.99   101.89     1  07:20        0.00
  Node_04644           JUNCTION     0.41     1.89   101.73     1  07:20        0.00
  Node_04645           JUNCTION     0.61     2.05   101.65     1  06:05        0.00
  Node_04678           JUNCTION     0.43     1.95   101.67     1  08:42        0.00
  Node_04679           JUNCTION     0.25     1.49   101.67     1  07:18        0.00
  Node_04680           JUNCTION     1.35     3.88   101.65     1  07:18        0.00
  Node_04681           JUNCTION     1.34     3.91   101.63     1  07:18        0.00
  Node_04682           JUNCTION     0.12     0.84   101.85     1  08:43        0.00
  Node_04710           JUNCTION     0.46     2.12   102.11     1  14:40        0.00
  Node_04711           JUNCTION     0.50     2.61   102.60     1  17:05        0.00
  Node_04712           JUNCTION     0.49     2.61   102.62     1  05:34        0.00
  Node_04713           JUNCTION     0.46     2.58   102.63     1  05:32        0.00
  Node_04714           JUNCTION     0.50     2.60   102.65     1  05:32        0.00
  Node_04715           JUNCTION     0.46     2.52   102.61     1  05:32        0.00
  Node_04716           JUNCTION     0.48     2.46   102.59     1  05:37        0.00
  Node_04717           JUNCTION     0.28     1.32   101.62     1  05:38        0.00
  Node_04721           JUNCTION     0.32     1.52   101.87     1  08:43        0.00
  Node_04759           JUNCTION     0.36     1.60   101.78     1  08:43        0.00
  Node_04760           JUNCTION     0.43     2.08   101.54     1  07:18        0.00
  Node_04764           JUNCTION     0.45     1.59   101.51     1  05:57        0.00
  Node_04765           JUNCTION     0.25     1.50   101.92     1  08:00        0.00
  Node_04766           JUNCTION     0.53     2.12   101.89     1  08:44        0.00
  Node_04767           JUNCTION     0.50     2.07   101.90     1  08:43        0.00
  Node_04768           JUNCTION     0.55     2.24   101.90     1  08:43        0.00
  Node_04854           JUNCTION     0.18     1.24   101.68     1  08:42        0.00
  Node_04855           JUNCTION     0.74     1.89   101.81     1  08:44        0.00
  Node_05283           JUNCTION     1.22     3.59   102.21     1  07:58        0.00
  Node_05284           JUNCTION     1.20     3.56   102.22     1  08:20        0.00
  Node_05285           JUNCTION     1.16     3.47   102.22     1  06:00        0.00
  Node_05286           JUNCTION     1.14     3.42   102.22     1  06:00        0.00
  Node_05287           JUNCTION     1.11     3.38   102.24     1  08:11        0.00
  Node_05288           JUNCTION     1.10     3.36   102.24     1  07:27        0.00
  Node_05289           JUNCTION     0.72     2.70   102.22     1  06:02        0.00
  Node_05290           JUNCTION     1.10     3.35   102.24     1  08:07        0.00
  Node_05291           JUNCTION     0.94     3.06   102.26     1  07:01        0.00
  Node_05292           JUNCTION     0.91     3.02   102.27     1  07:01        0.00
  Node_05293           JUNCTION     0.90     3.01   102.27     1  07:01        0.00
  Node_05294           JUNCTION     0.87     2.95   102.26     1  07:01        0.00
  Node_05295           JUNCTION     0.91     2.99   102.27     1  07:01        0.00
  Node_05296           JUNCTION     0.90     2.95   102.27     1  07:01        0.00
  Node_05297           JUNCTION     0.74     2.73   102.24     1  08:23        0.00
  Node_05298           JUNCTION     0.86     2.88   102.27     1  07:01        0.00
  Node_05299           JUNCTION     0.85     2.86   102.26     1  07:01        0.00
  Node_05300           JUNCTION     0.84     2.82   102.28     1  07:01        0.00
  Node_05301           JUNCTION     0.80     2.78   102.27     1  07:01        0.00
  Node_05302           JUNCTION     0.81     2.77   102.27     1  07:01        0.00
  Node_05303           JUNCTION     0.78     2.73   102.27     1  07:01        0.00
[...]
  Link_05461                 18.68     18.68     18.77      0.01         0.22
  Link_05462                 18.93     18.93     18.99      5.07         4.72
  Link_05463                 19.20     19.20     19.30      6.35         6.26
  Link_05464                 19.68     19.68     19.69      0.01         5.19
  Link_05496                 24.73     25.22     24.84     16.08        14.72
  Link_05662                  5.80      5.80      6.26      0.01         0.03
  Link_05663                  8.63      8.63      9.53      0.01         0.01
  Link_05664                 26.72     26.72     27.19      0.01         0.01
  Link_05665                 29.43     29.89     29.43     32.64        26.22
  Link_05677                 26.97     27.19     26.98     23.34        19.90
  Link_05678                  8.93      8.93      8.98      0.01         0.01
  Link_05720                 21.83     21.88     22.00      6.80         5.63
  Link_05721                 21.06     21.07     21.22      0.89         1.52
  Link_05722                 14.16     14.16     14.48      0.01         0.01
  Link_05723                  8.33      8.33     14.31      0.01         0.01
  Link_05725                  6.60      6.60      6.91      0.01         0.01
  Link_05726                 19.74     19.74     19.75      0.01         0.01
  Link_05727                 19.73     19.73     19.74      0.01         0.34
  Link_05728                 18.93     18.93     19.10      0.01         0.01
  Link_05729                 15.53     15.53     15.57      1.46         4.28
  Link_05730                 16.72     16.72     16.74      0.01         0.01
  Link_05731                 16.77     16.78     16.77      5.20         6.16
  Link_05732                 16.59     16.59     16.67      0.01         0.01
  Link_05742                 13.53     13.53     14.13      0.01         0.01
  Link_05743                 19.68     19.68     19.69      0.01         0.01
  Link_05744                 21.07     21.07     22.49      0.01         0.01
  Link_05752                 12.35     12.35     12.44      3.27         0.06
  Link_05753                  7.43      7.43      7.46      0.01         1.81
  Link_05754                  6.66      6.66      6.88      0.01         0.01
  Link_05791                 13.52     13.52     16.52      0.01         0.01
  Link_05812                 20.69     20.69     23.61      0.01         0.01
  Link_05813                 18.20     18.20     18.78      0.01         0.01
  Link_05814                 16.38     16.38     16.60      0.01         0.01
  Link_05815                 15.46     15.46     15.87      0.01         0.01
  Link_05816                 16.02     16.02     16.05      0.01         0.01
  Link_05817                 16.05     16.05     16.09      0.01         0.01
  Link_05818                 16.02     16.02     16.04      0.01         0.01
  Link_05983                  9.74      9.74     10.89      0.01         0.01
  Link_05984                  6.89      6.89      7.68      0.01         0.01
  Link_07220                  8.24      8.24      8.34      0.13         0.35
  Link_07221                  8.34      8.34      8.36      1.80         2.67
  Link_07222                  8.36      8.36      8.43      3.00         3.18
  Link_07230                  8.43      8.43      8.56      1.73         1.77
  Link_07231                  8.55      8.56      8.58      4.06         4.26
  Link_07233                  9.05      9.18      9.25      6.03         5.55
  Link_07234                  9.54      9.59      9.54     18.82         7.47
  Link_07235                  9.22      9.22      9.45      0.03         0.02
  Link_07270                  1.43      1.43      3.50      0.01         0.04
  Link_07271                  3.49      3.50      5.67      0.05         0.17
  Link_07274                  1.76      1.76      1.85      0.01         0.01
  Link_07277                  6.50      6.54      7.57      0.15         0.31
  Link_07278                  7.75      7.81      7.91      0.25         0.47
  Link_07295                  7.85      7.91      8.04      0.32         0.36
  Link_07296                  8.04      8.04      8.21      1.17         0.79
  Link_07297                  8.21      8.21      8.24      1.93         2.10
  Link_07303                  7.96      7.96      8.00      0.01         0.09
  Link_07306                  4.95      4.95      7.41      0.01         0.01
  Link_07321                  5.81      5.81      5.83      0.01         0.06
  Link_07464                 17.28     17.28     17.37      0.01         0.01
  Link_07578                 12.72     12.72     12.88      0.01         0.01
  Link_07579                 14.73     14.73     15.31      0.01         0.01
  Link_07580                 14.24     14.24     14.73      0.01         0.01
  Link_07687                 19.45     19.45     19.59      0.01         0.01
  Link_07865                 16.09     16.09     16.09      0.01         2.35
  Link_08891                  8.51      8.51     13.01      0.01         0.01
  Link_08912                  8.52      8.52     11.77      0.01         0.01
  Link1_to_ChengXi           24.16     24.16     25.26      0.05         0.01
  Link2_to_ChengXi           23.25     31.75     23.31     31.30        19.41
  Link3_to_ChengXi            8.81      9.78     10.52      3.48         2.42
  Link_to_LaoDongLu          16.74     16.74     16.75      0.01         0.01
  
  
  ***************
  Pumping Summary
  ***************
  
  ---------------------------------------------------------------------------------------------------------
                                                  Min       Avg       Max     Total     Power    % Time Off
                        Percent   Number of      Flow      Flow      Flow    Volume     Usage    Pump Curve
  Pump                 Utilized   Start-Ups       CMS       CMS       CMS  10^6 ltr     Kw-hr    Low   High
  ---------------------------------------------------------------------------------------------------------
  Pump_ChengXi1           62.13        2416      0.00      0.17      0.17    17.927    161.98    0.0    0.0
  Pump_ChengXi2           42.93        2028      0.00      0.17      0.17    12.387    107.72    0.0    0.0
  Pump_ChengXi3           29.26        1341      0.00      0.17      0.17     8.443     74.38    0.0    0.0
  Pump_ChengXi4           16.01         660      0.00      0.17      0.17     4.619     39.88    0.0    0.0
  Pump_LaoDongLu1         74.65         113      0.00      0.02      0.03     3.136     34.43    0.0    0.0
  Pump_LaoDongLu2         47.40         143      0.00      0.02      0.03     1.996     20.79    0.0    0.0
  Pump_LaoDongLu3         25.87         103      0.00      0.02      0.03     1.084     10.81    0.0    0.0
  outfallpump             83.93         818      0.00      0.30      0.45    42.984    771.84    0.0    0.0
  
  
  ***************************
  Link Pollutant Load Summary
  ***************************
  
  ----------------------------------
                                 COD
  Link                            kg
  ----------------------------------
  Link_01146                 258.982
  Link_01147                 272.393
  Link_01148                 285.949
  Link_01149                 298.717
  Link_01150                 312.656
  Link_01151                 327.882
  Link_01152                 310.380
  Link_01274                  46.791
  Link_01275                  70.803
  Link_01276                 222.899
  Link_01292                 117.592
  Link_01294                 266.063
  Link_01295                 283.472
  Link_01296                 302.354
  Link_01297                 450.616
  Link_01298                  48.500
  Link_01299                 523.734
  Link_01300                 543.077
  Link_01301                 562.966
  Link_01302                  47.305
  Link_01312                 114.824
  Link_01313                2866.709
  Link_01314                2879.694
  Link_01315                2892.742
  Link_01316                2905.772
  Link_01317                2918.535
  Link_01318                2931.353
  Link_01319                2944.511
  Link_01320                3454.988
  Link_01323                2203.707
  Link_01324                  78.123
  Link_01325                2295.913
  Link_01326                2308.520
  Link_01327                2298.277
  Link_01328                  82.083
  Link_01329                2388.083
  Link_01330                2400.769
  Link_01331                2412.161
  Link_01332                1996.695
  Link_01333                  79.554
  Link_01334                2086.917
  Link_01335                  79.909
  Link_01336                2180.014
  Link_01337                1710.182
  Link_01338                  79.764
  Link_01339                1620.710
  Link_01340                  79.811
  Link_01341                1552.180
  Link_01342                  80.590
  Link_01343                1512.275
  Link_01344                 250.709
  Link_01345                1364.953
  Link_01346                1369.465
  Link_01347                  81.496
  Link_01348                1182.994
  Link_01349                 243.498
  Link_01350                1182.911
  Link_01351                  81.355
  Link_01352                1150.262
  Link_01556                 116.305
  Link_01557                 214.498
  Link_01558               1.181e+04
  Link_01559                 483.428
  Link_01560               1.180e+04
  Link_01561               1.228e+04
  Link_01562               1.230e+04
  Link_01563               1.232e+04
  Link_01564                  18.368
  Link_01565                1161.918
  Link_01566                  51.407
  Link_01567                  80.391
  Link_01568                1111.257
  Link_01569                  81.911
  Link_01570                1123.197
  Link_01571                1093.491
  Link_01572                 619.013
  Link_01573                 891.078
  Link_01574                 875.384
  Link_01575                  81.165
  Link_01576                 783.626
  Link_01577                 689.337
  Link_01578                 671.191
  Link_01579                  79.792
  Link_01580                  77.538
  Link_01581                  89.671
  Link_01582                  83.751
  Link_01731                 158.075
  Link_01732                 206.216
  Link_01733                 243.843
  Link_01734                  81.091
  Link_01735                 105.563
  Link_01751                 460.969
  Link_01752                 479.200
  Link_01753                 562.011
  Link_01754                 578.964
  Link_01755                 599.708
  Link_01756                  46.074
  Link_01757                 789.584
  Link_01758                  78.435
  Link_01759                  78.461
  Link_01760                 864.753
  Link_01761                 867.598
  Link_01762                 868.673
  Link_01763                  55.801
  Link_01764                 900.887
  Link_01765                 853.743
  Link_01766                 802.233
  Link_01767                1918.809
  Link_01768                1934.039
  Link_01769                1956.013
  Link_01770                1972.342
  Link_01771                1993.104
  Link_01772                 336.384
  Link_01773                2228.841
  Link_01774                 437.379
  Link_01775                1003.914
  Link_01776                 970.513
  Link_01777                 965.588
  Link_01778                1285.552
  Link_01779                 858.368
  Link_01780                1541.952
  Link_01781                 610.096
  Link_01782                2677.891
  Link_01783                  80.130
  Link_01784                2756.003
  Link_01785                2788.877
  Link_01786                1001.339
  Link_01787                 474.493
  Link_01788                4000.526
  Link_01789                4001.258
  Link_01790                 178.933
  Link_01791                 167.902
  Link_01792                 124.062
  Link_01793                4260.429
  Link_01794                4263.601
  Link_01795                4267.967
  Link_01796                4271.328
  Link_01797                4273.528
  Link_01798                7914.089
  Link_01799                7911.822
  Link_01800                7907.764
  Link_01801                4360.833
  Link_01802                7654.320
  Link_01803                7915.493
  Link_01804                6210.781
  Link_01805                6186.442
  Link_01806                6163.464
  Link_01807                6142.517
  Link_01808                 145.392
  Link_01809                5981.362
  Link_01810                5940.559
  Link_01811                  15.068
  Link_01812                 843.205
  Link_01813                 674.324
  Link_01814                5731.131
  Link_01815                5710.723
  Link_01816                5649.304
  Link_01817                  48.061
  Link_01818                5307.978
  Link_01819                5185.395
  Link_01820                 112.407
  Link_01821                 345.612
  Link_01822                  78.507
  Link_01823                1965.312
  Link_01824                1951.880
  Link_01825                 682.782
  Link_01826                 686.812
  Link_01827                  17.423
  Link_01828                 699.099
  Link_01829                  78.489
  Link_01830                 766.083
  Link_01831                  15.455
  Link_01832                 777.466
  Link_01833                 783.302
  Link_01834                 793.320
  Link_01835                  18.156
  Link_01836                 504.518
  Link_01837                 355.665
  Link_01838                 327.016
  Link_01839                 486.267
  Link_01840                 470.951
  Link_01841                 454.953
  Link_01842                 389.713
  Link_01843                 357.896
  Link_01844                 356.858
  Link_02074                  82.757
  Link_02075                1428.892
  Link_02076                1577.905
  Link_02077                 104.197
  Link_02078                1705.554
  Link_02079                 113.427
  Link_02080                1826.483
  Link_02081                1839.597
  Link_02082                1853.411
  Link_02083                 114.928
  Link_02084                  82.857
  Link_02085                3453.109
  Link_02086                3406.343
  Link_02087                3397.851
  Link_02088                3384.559
  Link_02089                3366.386
  Link_02090                3500.660
  Link_02091                3486.746
  Link_02092                3473.010
  Link_02093                  79.299
  Link_02094                3365.662
  Link_02095                3349.127
  Link_02096                2923.645
  Link_02097                 210.353
  Link_02098                 250.162
  Link_02099                2899.966
  Link_02100                2880.834
  Link_02101                 178.174
  Link_02102                2666.034
  Link_02103                2474.806
  Link_02104                 180.612
  Link_02105                1870.427
  Link_02106                 155.847
  Link_02107                  19.327
  Link_02108                1809.963
  Link_02109                1794.686
  Link_02110                2633.911
  Link_02111                1924.408
  Link_02112                 178.161
  Link_02113                1455.612
  Link_02114                 285.281
  Link_02115                 271.163
  Link_02116                 260.702
  Link_02117                 246.337
  Link_02118                 234.901
  Link_02123                  80.015
  Link_02124                  92.140
  Link_02125                 106.071
  Link_02126                 119.659
  Link_02127                 221.728
  Link_02128                 208.934
  Link_02129                 233.409
  Link_02130                 211.227
  Link_02131                 211.878
  Link_02132                 205.616
  Link_02133                 188.528
  Link_02134                1468.477
  Link_02135                1482.016
  Link_02136                1573.333
  Link_02137                  81.510
  Link_02138                1733.594
  Link_02139                1719.890
  Link_02140                1706.036
  Link_02141                1692.769
  Link_02142                1679.062
  Link_02143                1587.159
  Link_02383                  20.291
  Link_02384                  46.361
  Link_02385                  73.808
  Link_02386                 344.332
  Link_02387                 434.971
  Link_02388                 452.275
  Link_02389                 344.358
  Link_02390                 469.990
  Link_02391                 820.303
  Link_02392                 372.128
  Link_02393                1201.362
  Link_05459                 445.591
  Link_05460                 861.344
  Link_05461                 884.332
  Link_05462                2580.679
  Link_05463                4257.806
  Link_05464                 299.828
  Link_05496               1.179e+04
  Link_05662                 246.010
  Link_05663                  48.123
  Link_05664                 316.204
  Link_05665                3467.381
  Link_05677                2647.820
  Link_05678                 210.283
  Link_05720                7644.756
  Link_05721                5917.501
  Link_05722                 178.323
  Link_05723                1189.556
  Link_05725                 135.168
  Link_05726                3464.137
  Link_05727                  46.259
  Link_05728                3382.836
  Link_05729                2687.386
  Link_05730                2622.103
  Link_05731                1938.904
  Link_05732                1911.264
  Link_05742                 346.266
  Link_05743                1212.716
  Link_05744                1861.739
  Link_05752                 723.833
  Link_05753                  49.055
  Link_05754                 371.793
  Link_05791                  78.999
  Link_05812                2191.194
  Link_05813                1360.823
  Link_05814                1152.767
  Link_05815                1118.064
  Link_05816                 196.924
  Link_05817                 283.709
  Link_05818                 324.977
  Link_05983                 264.828
  Link_05984                 247.227
  Link_06039                  13.396
  Link_07220                 832.354
  Link_07221                 853.023
  Link_07222                1027.226
  Link_07230                1044.128
  Link_07231                1061.981
  Link_07233                1689.300
  Link_07234                1710.499
  Link_07235                 668.476
  Link_07270                 398.184
  Link_07271                 470.059
  Link_07274                 196.326
  Link_07277                 556.109
  Link_07278                 616.231
  Link_07295                 577.623
  Link_07296                 611.321
  Link_07297                 816.979
  Link_07303                  80.990
  Link_07306                  87.299
  Link_07321                 177.642
  Link_07464                 274.935
  Link_07578                 346.150
  Link_07579                2441.568
  Link_07580                2073.040
  Link_07687                 243.054
  Link_07865                 188.177
  Link_08891                 115.544
  Link_08912                 509.483
  Link1_to_ChengXi         1.233e+04
  Link2_to_ChengXi          3479.827
  Link3_to_ChengXi          1777.899
  Link_to_LaoDongLu         2646.423
  Pump_ChengXi1             7168.211
  Pump_ChengXi2             4838.707
  Pump_ChengXi3             3261.930
  Pump_ChengXi4             1733.118
  Pump_LaoDongLu1            941.977
  Pump_LaoDongLu2            547.314
  Pump_LaoDongLu3            281.943
  outfallpump              1.523e+04
  

  Analysis begun on:  Sat May  2 16:00:16 2020
  Analysis ended on:  Sat May  2 16:00:31 2020
  Total elapsed time: 00:00:15